/*--------------------------------*- C++ -*----------------------------------*\
| =========                 |                                                 |
| \\      /  F ield         | OpenFOAM: The Open Source CFD Toolbox           |
|  \\    /   O peration     | Version:  11                                    |
|   \\  /    A nd           | Web:      www.OpenFOAM.org                      |
|    \\/     M anipulation  |                                                 |
\*---------------------------------------------------------------------------*/
FoamFile
{
    version     2.0;
    format      ascii;
    class       dictionary;
    object      blockMeshDict;
}
// * * * * * * * * * * * * * * * * * * * * * * * * * * * * * * * * * * * * * //

convertToMeters 1;

vertices
(
    (-0.5 -0.5 -0.5) // 0
    ( 1.5 -0.5 -0.5) // 1
    ( 1.5  0.5 -0.5) // 2
    (-0.5  0.5 -0.5) // 3
    (-0.5 -0.5  0.5) // 4
    ( 1.5 -0.5  0.5) // 5
    ( 1.5  0.5  0.5) // 6
    (-0.5  0.5  0.5) // 7
);

blocks
(
    hex (0 1 2 3 4 5 6 7) (40 20 20) simpleGrading (1 1 1)
);

edges
(
);

boundary
(
);

mergePatchPairs
(
);

// ************************************************************************* //
